C00027716
     RDKit          2D

 23 26  0  0  0  0  0  0  0  0999 V2000
   -0.9210   -1.8806    0.0000 C   0  0  0  0  0  0  0  0  0  0  0  0
   -1.8084   -1.2862    0.0000 C   0  0  0  0  0  0  0  0  0  0  0  0
   -1.7876   -0.2406    0.0000 C   0  0  0  0  0  0  0  0  0  0  0  0
   -0.8740    0.2138    0.0000 C   0  0  0  0  0  0  0  0  0  0  0  0
    0.0524   -0.3494    0.0000 C   0  0  0  0  0  0  0  0  0  0  0  0
   -0.0102   -1.3872    0.0000 C   0  0  0  0  0  0  0  0  0  0  0  0
    0.9266    0.0974    0.0000 C   0  0  0  0  0  0  0  0  0  0  0  0
    0.9284    1.1268    0.0000 C   0  0  0  0  0  0  0  0  0  0  0  0
    0.1180    1.7216    0.0000 N   0  0  0  0  0  0  0  0  0  0  0  0
   -0.7960    1.2576    0.0000 C   0  0  0  0  0  0  0  0  0  0  0  0
    0.4478    2.6656    0.0000 C   0  0  0  0  0  0  0  0  0  0  0  0
    1.4988    2.6576    0.0000 C   0  0  0  0  0  0  0  0  0  0  0  0
    1.7728    1.6530    0.0000 C   0  0  0  0  0  0  0  0  0  0  0  0
    2.6974    1.1894    0.0000 C   0  0  0  0  0  0  0  0  0  0  0  0
    2.6908    0.1222    0.0000 C   0  0  0  0  0  0  0  0  0  0  0  0
    1.7908   -0.4362    0.0000 C   0  0  0  0  0  0  0  0  0  0  0  0
    1.7800   -1.4294    0.0000 O   0  0  0  0  0  0  0  0  0  0  0  0
    2.6322   -1.9500    0.0000 C   0  0  0  0  0  0  0  0  0  0  0  0
    3.5104   -1.4746    0.0000 O   0  0  0  0  0  0  0  0  0  0  0  0
    2.6044   -2.9506    0.0000 C   0  0  0  0  0  0  0  0  0  0  0  0
   -2.7042   -1.7530    0.0000 O   0  0  0  0  0  0  0  0  0  0  0  0
   -0.9674   -2.8694    0.0000 O   0  0  0  0  0  0  0  0  0  0  0  0
   -1.8560   -3.3282    0.0000 C   0  0  0  0  0  0  0  0  0  0  0  0
  1  2  2  0
  2  3  1  0
  3  4  2  0
  4  5  1  0
  5  6  2  0
  7  5  1  1
  7  8  1  0
  8  9  1  0
  9 10  1  0
  9 11  1  0
 11 12  1  0
 12 13  1  0
 13 14  2  0
 14 15  1  0
 15 16  1  0
 16 17  1  1
 17 18  1  0
 18 19  2  0
 18 20  1  0
  2 21  1  0
  1 22  1  0
 22 23  1  0
  6  1  1  0
 16  7  1  0
 10  4  1  0
  8 13  1  6
M  END
>  <Name>  (1) 
1-O-Acetyl-9-O-demethylpluviine||1-O-Acetylnorpluviine

>  <Formula>  (1) 
C18H21NO4

>  <Mw>  (1) 
315.14705817

>  <CAS RN>  (1) 
265992-98-1

>  <InChIKey>  (1) 
LSBMSYLHJUUWMU-KIXCUHSHNA-N

>  <InChICode>  (1) 
InChI=1S/C18H21NO4/c1-10(20)23-15-4-3-11-5-6-19-9-12-7-14(21)16(22-2)8-13(12)17(15)18(11)19/h3,7-8,15,17-18,21H,4-6,9H2,1-2H3/t15-,17-,18-/m1/s1

>  <SMILES>  (1) 
c1(c(cc2c(c1)[C@H]1[C@@H]3N(C2)CCC3=CC[C@H]1OC(=O)C)O)OC

>  <C_ID>  (1) 
C00027716

>  <Contains_Nitrogen>  (1) 
True

>  <In_Species>  (1) 
Ammocharis coranica||Brunsvigia radulosa

>  <NMRSHIFTDB2_ASSIGNMENT>  (1) 
1, 145.7 \
2, 148.2 \
3, 113.6 \
4, 128.4 \
5, 126.6 \
6, 109.9 \
7, 43.8 \
8, 60.6 \
10, 56.8 \
11, 53.4 \
12, 28.1 \
13, 139.6 \
14, 114.9 \
15, 26.3 \
16, 78.9 \
18, 170.5 \
20, 21.2 \
23, 56.1 \

>  <NMR_score>  (1) 
1.000

$$$$
C00028767
     RDKit          2D

 23 27  0  0  0  0  0  0  0  0999 V2000
   -0.6710   -0.2332    0.0000 C   0  0  0  0  0  0  0  0  0  0  0  0
   -0.6758   -1.2332    0.0000 C   0  0  0  0  0  0  0  0  0  0  0  0
   -1.5442   -1.7290    0.0000 C   0  0  0  0  0  0  0  0  0  0  0  0
   -2.4078   -1.2248    0.0000 O   0  0  0  0  0  0  0  0  0  0  0  0
   -2.4030   -0.2248    0.0000 C   0  0  0  0  0  0  0  0  0  0  0  0
   -1.5346    0.2710    0.0000 C   0  0  0  0  0  0  0  0  0  0  0  0
   -1.5298    1.2708    0.0000 C   0  0  0  0  0  0  0  0  0  0  0  0
   -2.3934    1.7750    0.0000 C   0  0  0  0  0  0  0  0  0  0  0  0
   -3.2618    1.2792    0.0000 C   0  0  0  0  0  0  0  0  0  0  0  0
   -3.2666    0.2792    0.0000 C   0  0  0  0  0  0  0  0  0  0  0  0
   -2.1808    2.7522    0.0000 C   0  0  0  0  0  0  0  0  0  0  0  0
   -1.1858    2.8518    0.0000 C   0  0  0  0  0  0  0  0  0  0  0  0
   -0.7834    1.9364    0.0000 N   0  0  0  0  0  0  0  0  0  0  0  0
    0.1936    1.7238    0.0000 C   0  0  0  0  0  0  0  0  0  0  0  0
   -1.5490   -2.7290    0.0000 O   0  0  0  0  0  0  0  0  0  0  0  0
   -2.4174   -3.2248    0.0000 C   0  0  0  0  0  0  0  0  0  0  0  0
    0.1878   -1.7374    0.0000 C   0  0  0  0  0  0  0  0  0  0  0  0
    1.0562   -1.2416    0.0000 C   0  0  0  0  0  0  0  0  0  0  0  0
    1.0610   -0.2416    0.0000 C   0  0  0  0  0  0  0  0  0  0  0  0
    0.1974    0.2626    0.0000 C   0  0  0  0  0  0  0  0  0  0  0  0
    2.0138    0.0628    0.0000 O   0  0  0  0  0  0  0  0  0  0  0  0
    2.5974   -0.7490    0.0000 C   0  0  0  0  0  0  0  0  0  0  0  0
    2.0060   -1.5550    0.0000 O   0  0  0  0  0  0  0  0  0  0  0  0
  1  2  2  0
  2  3  1  0
  3  4  1  0
  4  5  1  0
  5  6  1  0
  6  7  1  0
  7  8  1  0
  8  9  2  0
  9 10  1  0
  8 11  1  0
 11 12  1  0
 12 13  1  0
 13 14  1  0
  3 15  1  1
 15 16  1  0
  2 17  1  0
 17 18  2  0
 18 19  1  0
 19 20  2  0
 19 21  1  0
 21 22  1  0
 22 23  1  0
  6  1  1  6
  7 13  1  1
 23 18  1  0
 20  1  1  0
  5 10  1  6
M  END
>  <Name>  (2) 
O-Methyloduline

>  <Formula>  (2) 
C18H21NO4

>  <Mw>  (2) 
315.14705817

>  <CAS RN>  (2) 
162411-70-3

>  <InChIKey>  (2) 
KNJMSCPZQOVPLI-PSOQJSIDNA-N

>  <InChICode>  (2) 
InChI=1S/C18H21NO4/c1-19-6-5-10-3-4-13-16(17(10)19)11-7-14-15(22-9-21-14)8-12(11)18(20-2)23-13/h3,7-8,13,16-18H,4-6,9H2,1-2H3/t13-,16-,17-,18+/m1/s1

>  <SMILES>  (2) 
c12c([C@H](O[C@H]3[C@@H]1[C@H]1C(=CC3)CCN1C)OC)cc1c(c2)OCO1

>  <C_ID>  (2) 
C00028767

>  <Contains_Nitrogen>  (2) 
True

>  <In_Species>  (2) 
Narcissus bujei||Narcissus pseudo narcissus subsp.pseudo narcissus

>  <NMRSHIFTDB2_ASSIGNMENT>  (2) 
1, 126.5 \
2, 137.4 \
3, 101.3 \
5, 67.3 \
6, 43.8 \
7, 66.4 \
8, 139.6 \
9, 114.9 \
10, 31.7 \
11, 27.9 \
12, 56.7 \
14, 43.8 \
16, 55.1 \
17, 110.6 \
18, 147.2 \
19, 146.8 \
20, 109.9 \
22, 101.3 \

>  <NMR_score>  (2) 
1.000

$$$$
C00024379
     RDKit          2D

 23 25  0  0  0  0  0  0  0  0999 V2000
   -0.7946   -0.6316    0.0000 C   0  0  0  0  0  0  0  0  0  0  0  0
   -1.6616   -1.1298    0.0000 C   0  0  0  0  0  0  0  0  0  0  0  0
   -1.6636   -2.1298    0.0000 C   0  0  0  0  0  0  0  0  0  0  0  0
   -0.7986   -2.6316    0.0000 C   0  0  0  0  0  0  0  0  0  0  0  0
    0.0684   -2.1332    0.0000 C   0  0  0  0  0  0  0  0  0  0  0  0
    0.0704   -1.1334    0.0000 C   0  0  0  0  0  0  0  0  0  0  0  0
    0.9374   -0.6350    0.0000 C   0  0  0  0  0  0  0  0  0  0  0  0
    1.8026   -1.1368    0.0000 C   0  0  0  0  0  0  0  0  0  0  0  0
    2.6696   -0.6386    0.0000 C   0  0  0  0  0  0  0  0  0  0  0  0
    2.6716    0.3614    0.0000 C   0  0  0  0  0  0  0  0  0  0  0  0
    1.8066    0.8632    0.0000 C   0  0  0  0  0  0  0  0  0  0  0  0
    0.9396    0.3650    0.0000 C   0  0  0  0  0  0  0  0  0  0  0  0
    0.0746    0.8666    0.0000 C   0  0  0  0  0  0  0  0  0  0  0  0
    0.0766    1.8666    0.0000 O   0  0  0  0  0  0  0  0  0  0  0  0
   -0.7926    0.3684    0.0000 O   0  0  0  0  0  0  0  0  0  0  0  0
    0.8102   -2.8040    0.0000 N   0  0  0  0  0  0  0  0  0  0  0  0
    0.4016   -3.7166    0.0000 C   0  0  0  0  0  0  0  0  0  0  0  0
   -0.5926   -3.6100    0.0000 C   0  0  0  0  0  0  0  0  0  0  0  0
    1.7888   -2.5980    0.0000 C   0  0  0  0  0  0  0  0  0  0  0  0
   -2.5266   -0.6282    0.0000 O   0  0  0  0  0  0  0  0  0  0  0  0
   -3.3936   -1.1264    0.0000 C   0  0  0  0  0  0  0  0  0  0  0  0
   -3.3956   -2.1264    0.0000 O   0  0  0  0  0  0  0  0  0  0  0  0
   -4.2586   -0.6248    0.0000 C   0  0  0  0  0  0  0  0  0  0  0  0
  1  2  1  0
  2  3  1  0
  3  4  2  0
  4  5  1  0
  5  6  1  0
  6  7  1  1
  7  8  2  0
  8  9  1  0
  9 10  2  0
 10 11  1  0
 11 12  2  0
 12 13  1  0
 13 14  2  0
 13 15  1  0
  5 16  1  6
 16 17  1  0
 17 18  1  0
 16 19  1  0
  2 20  1  1
 20 21  1  0
 21 22  2  0
 21 23  1  0
  6  1  1  0
 12  7  1  0
 18  4  1  0
M  END
>  <Name>  (3) 
Clivojuline

>  <Formula>  (3) 
C18H21NO4

>  <Mw>  (3) 
315.14705817

>  <CAS RN>  (3) 
77410-45-8

>  <InChIKey>  (3) 
GSIMSPGRWYRESN-LSGYNICXNA-N

>  <InChICode>  (3) 
InChI=1S/C18H21NO4/c1-11(20)23-13-9-12-7-8-19(2)17(12)16(10-13)14-5-3-4-6-15(14)18(21)22/h3-6,9,13,16-17H,7-8,10H2,1-2H3,(H,21,22)/t13-,16+,17-/m1/s1

>  <SMILES>  (3) 
C1[C@@H](C=C2[C@H]([C@@H]1c1ccccc1C(=O)O)N(CC2)C)OC(=O)C

>  <C_ID>  (3) 
C00024379

>  <Contains_Nitrogen>  (3) 
True

>  <In_Species>  (3) 
Clivia miniata Regel

>  <NMRSHIFTDB2_ASSIGNMENT>  (3) 
1, 33.2 \
2, 66.8 \
3, 128.7 \
4, 143.9 \
5, 63.5 \
6, 40.8 \
7, 137.8 \
8, 126.3 \
9, 127.0 \
10, 129.4 \
11, 127.5 \
12, 128.0 \
13, 168.4 \
17, 56.7 \
18, 28.1 \
19, 43.8 \
21, 169.9 \
23, 20.9 \

>  <NMR_score>  (3) 
0.944

$$$$
C00024398
     RDKit          2D

 23 26  0  0  0  0  0  0  0  0999 V2000
    0.3516   -1.6024    0.0000 C   0  0  0  0  0  0  0  0  0  0  0  0
   -0.5156   -2.1008    0.0000 C   0  0  0  0  0  0  0  0  0  0  0  0
   -1.3806   -1.5990    0.0000 C   0  0  0  0  0  0  0  0  0  0  0  0
   -1.3786   -0.5990    0.0000 C   0  0  0  0  0  0  0  0  0  0  0  0
   -0.5114   -0.1008    0.0000 C   0  0  0  0  0  0  0  0  0  0  0  0
    0.3536   -0.6024    0.0000 C   0  0  0  0  0  0  0  0  0  0  0  0
   -0.5094    0.8992    0.0000 C   0  0  0  0  0  0  0  0  0  0  0  0
   -1.3744    1.4010    0.0000 C   0  0  0  0  0  0  0  0  0  0  0  0
   -2.2416    0.9026    0.0000 O   0  0  0  0  0  0  0  0  0  0  0  0
   -2.2436   -0.0974    0.0000 C   0  0  0  0  0  0  0  0  0  0  0  0
   -3.1106   -0.5956    0.0000 O   0  0  0  0  0  0  0  0  0  0  0  0
   -1.3724    2.4008    0.0000 C   0  0  0  0  0  0  0  0  0  0  0  0
   -0.5054    2.8992    0.0000 C   0  0  0  0  0  0  0  0  0  0  0  0
    0.3596    2.3974    0.0000 C   0  0  0  0  0  0  0  0  0  0  0  0
    0.3576    1.3974    0.0000 C   0  0  0  0  0  0  0  0  0  0  0  0
    1.3080    1.0866    0.0000 N   0  0  0  0  0  0  0  0  0  0  0  0
    1.8974    1.8944    0.0000 C   0  0  0  0  0  0  0  0  0  0  0  0
    1.3114    2.7044    0.0000 C   0  0  0  0  0  0  0  0  0  0  0  0
    1.6152    0.1350    0.0000 C   0  0  0  0  0  0  0  0  0  0  0  0
   -0.5176   -3.1008    0.0000 O   0  0  0  0  0  0  0  0  0  0  0  0
   -1.3846   -3.5990    0.0000 C   0  0  0  0  0  0  0  0  0  0  0  0
    1.2166   -2.1042    0.0000 O   0  0  0  0  0  0  0  0  0  0  0  0
    2.0836   -1.6060    0.0000 C   0  0  0  0  0  0  0  0  0  0  0  0
  1  2  2  0
  2  3  1  0
  3  4  2  0
  4  5  1  0
  5  6  2  0
  7  5  1  6
  7  8  1  0
  8  9  1  0
  9 10  1  0
 10 11  2  0
  8 12  1  6
 12 13  1  0
 13 14  2  0
 14 15  1  0
 15 16  1  1
 16 17  1  0
 17 18  1  0
 16 19  1  0
  2 20  1  0
 20 21  1  0
  1 22  1  0
 22 23  1  0
  6  1  1  0
 15  7  1  0
 10  4  1  0
 18 14  1  0
M  END
>  <Name>  (4) 
Homolycorine||(+)-Homolycorine||Narcipoetine

>  <Formula>  (4) 
C18H21NO4

>  <Mw>  (4) 
315.14705817

>  <CAS RN>  (4) 
477-20-3

>  <InChIKey>  (4) 
WXZAKVLYZHWSNF-JJYXGDQFNA-N

>  <InChICode>  (4) 
InChI=1S/C18H21NO4/c1-19-7-6-10-4-5-13-16(17(10)19)11-8-14(21-2)15(22-3)9-12(11)18(20)23-13/h4,8-9,13,16-17H,5-7H2,1-3H3/t13-,16-,17-/m1/s1

>  <SMILES>  (4) 
c1(c(cc2c(c1)[C@@H]1[C@H](OC2=O)CC=C2[C@H]1N(CC2)C)OC)OC

>  <C_ID>  (4) 
C00024398

>  <Contains_Nitrogen>  (4) 
True

>  <In_Species>  (4) 
Hippeastrum ananuca||Lycoris radiata Herb.||Narcissus bujei||Narcissus poeticus L.||Narcissus primigenius||Narcissus tazetta L.

>  <NMRSHIFTDB2_ASSIGNMENT>  (4) 
1, 147.6 \
2, 148.2 \
3, 109.9 \
4, 128.0 \
5, 137.8 \
6, 109.9 \
7, 43.8 \
8, 75.8 \
10, 163.9 \
12, 26.3 \
13, 114.9 \
14, 139.6 \
15, 66.4 \
17, 56.7 \
18, 27.9 \
19, 43.8 \
21, 56.0 \
23, 56.2 \

>  <NMR_score>  (4) 
0.944

$$$$
C00027991
     RDKit          2D

 23 27  0  0  0  0  0  0  0  0999 V2000
   -1.6182   -1.4570    0.0000 C   0  0  0  0  0  0  0  0  0  0  0  0
   -0.4950   -1.7564    0.0000 N   0  0  0  0  0  0  0  0  0  0  0  0
    0.4900   -0.9748    0.0000 C   0  0  0  0  0  0  0  0  0  0  0  0
    0.4172   -0.1056    0.0000 C   0  0  0  0  0  0  0  0  0  0  0  0
    1.4940    0.6054    0.0000 C   0  0  0  0  0  0  0  0  0  0  0  0
    1.4392    1.7714    0.0000 C   0  0  0  0  0  0  0  0  0  0  0  0
    0.4634    2.1964    0.0000 C   0  0  0  0  0  0  0  0  0  0  0  0
   -0.4820    1.5378    0.0000 C   0  0  0  0  0  0  0  0  0  0  0  0
   -0.3752    0.3188    0.0000 C   0  0  0  0  0  0  0  0  0  0  0  0
   -1.6194   -0.2742    0.0000 C   0  0  0  0  0  0  0  0  0  0  0  0
   -2.4696    0.2764    0.0000 C   0  0  0  0  0  0  0  0  0  0  0  0
   -3.3580   -0.2378    0.0000 C   0  0  0  0  0  0  0  0  0  0  0  0
   -3.4076   -1.3222    0.0000 C   0  0  0  0  0  0  0  0  0  0  0  0
   -2.4690   -1.8840    0.0000 C   0  0  0  0  0  0  0  0  0  0  0  0
   -4.2858   -1.7858    0.0000 O   0  0  0  0  0  0  0  0  0  0  0  0
   -4.3304   -2.7836    0.0000 C   0  0  0  0  0  0  0  0  0  0  0  0
   -0.8526   -0.0416    0.0000 C   0  0  0  0  0  0  0  0  0  0  0  0
   -0.0922   -1.0396    0.0000 C   0  0  0  0  0  0  0  0  0  0  0  0
    0.5844    3.2066    0.0000 O   0  0  0  0  0  0  0  0  0  0  0  0
    1.5696    3.4206    0.0000 C   0  0  0  0  0  0  0  0  0  0  0  0
    2.0798    2.4882    0.0000 O   0  0  0  0  0  0  0  0  0  0  0  0
    2.3952    0.1518    0.0000 O   0  0  0  0  0  0  0  0  0  0  0  0
    3.2300    0.7028    0.0000 C   0  0  0  0  0  0  0  0  0  0  0  0
  1  2  1  0
  2  3  1  0
  3  4  1  0
  4  5  2  0
  5  6  1  0
  6  7  2  0
  7  8  1  0
  8  9  2  0
  9 10  1  0
 10 11  1  6
 11 12  2  0
 12 13  1  0
 13 14  1  0
 13 15  1  1
 15 16  1  0
 10 17  1  0
 17 18  1  0
  7 19  1  0
 19 20  1  0
 20 21  1  0
  5 22  1  0
 22 23  1  0
 10  1  1  0
  1 14  1  6
 18  2  1  0
  9  4  1  0
 21  6  1  0
M  END
>  <Name>  (5) 
Buphanidrine

>  <Formula>  (5) 
C18H21NO4

>  <Mw>  (5) 
315.14705817

>  <CAS RN>  (5) 
1162-10-3

>  <InChIKey>  (5) 
RNEXSBPDDRJJIY-ZXPNDEJPNA-N

>  <InChICode>  (5) 
InChI=1S/C18H21NO4/c1-20-11-3-4-18-5-6-19(15(18)7-11)9-12-13(18)8-14-17(16(12)21-2)23-10-22-14/h3-4,8,11,15H,5-7,9-10H2,1-2H3/t11-,15+,18+/m0/s1

>  <SMILES>  (5) 
[C@H]12N3Cc4c(c5c(cc4[C@@]1(C=C[C@@H](C2)OC)CC3)OCO5)OC

>  <C_ID>  (5) 
C00027991

>  <Contains_Nitrogen>  (5) 
True

>  <In_Species>  (5) 
Ammocharis tinneana||Brunsvigia josephinae

>  <NMRSHIFTDB2_ASSIGNMENT>  (5) 
1, 62.9 \
3, 55.8 \
4, 118.3 \
5, 140.4 \
6, 137.4 \
7, 148.0 \
8, 105.5 \
9, 141.6 \
10, 44.0 \
11, 132.1 \
12, 123.7 \
13, 71.2 \
14, 30.2 \
16, 56.0 \
17, 44.0 \
18, 53.4 \
20, 100.2 \
23, 61.0 \

>  <NMR_score>  (5) 
0.944

$$$$
