C00024352
     RDKit          2D

 24 27  0  0  0  0  0  0  0  0999 V2000
   -1.0668   -1.9124    0.0000 C   0  0  0  0  0  0  0  0  0  0  0  0
   -1.9556   -1.3176    0.0000 C   0  0  0  0  0  0  0  0  0  0  0  0
   -1.9350   -0.2720    0.0000 C   0  0  0  0  0  0  0  0  0  0  0  0
   -1.0224    0.1824    0.0000 C   0  0  0  0  0  0  0  0  0  0  0  0
   -0.0970   -0.3806    0.0000 C   0  0  0  0  0  0  0  0  0  0  0  0
   -0.1582   -1.4202    0.0000 C   0  0  0  0  0  0  0  0  0  0  0  0
    0.7766    0.0678    0.0000 C   0  0  0  0  0  0  0  0  0  0  0  0
    0.7780    1.0986    0.0000 C   0  0  0  0  0  0  0  0  0  0  0  0
   -0.0306    1.6910    0.0000 N   0  0  0  0  0  0  0  0  0  0  0  0
   -0.9446    1.2266    0.0000 C   0  0  0  0  0  0  0  0  0  0  0  0
    0.2984    2.6358    0.0000 C   0  0  0  0  0  0  0  0  0  0  0  0
    1.3480    2.6284    0.0000 C   0  0  0  0  0  0  0  0  0  0  0  0
    1.6222    1.6254    0.0000 C   0  0  0  0  0  0  0  0  0  0  0  0
    2.5524    1.1564    0.0000 C   0  0  0  0  0  0  0  0  0  0  0  0
    2.5486    0.0872    0.0000 C   0  0  0  0  0  0  0  0  0  0  0  0
    1.6492   -0.4690    0.0000 C   0  0  0  0  0  0  0  0  0  0  0  0
    1.6374   -1.4624    0.0000 O   0  0  0  0  0  0  0  0  0  0  0  0
    2.4882   -1.9848    0.0000 C   0  0  0  0  0  0  0  0  0  0  0  0
    3.3674   -1.5114    0.0000 O   0  0  0  0  0  0  0  0  0  0  0  0
    2.4580   -2.9852    0.0000 C   0  0  0  0  0  0  0  0  0  0  0  0
    3.4302   -0.4060    0.0000 O   0  0  0  0  0  0  0  0  0  0  0  0
   -2.8512   -1.7846    0.0000 O   0  0  0  0  0  0  0  0  0  0  0  0
   -3.6948   -1.2478    0.0000 C   0  0  0  0  0  0  0  0  0  0  0  0
   -1.1128   -2.9012    0.0000 O   0  0  0  0  0  0  0  0  0  0  0  0
  1  2  2  0
  2  3  1  0
  3  4  2  0
  4  5  1  0
  5  6  2  0
  7  5  1  1
  7  8  1  0
  8  9  1  0
  9 10  1  0
  9 11  1  0
 11 12  1  0
 12 13  1  0
 13 14  2  0
 14 15  1  0
 15 16  1  0
 16 17  1  1
 17 18  1  0
 18 19  2  0
 18 20  1  0
 15 21  1  6
  2 22  1  0
 22 23  1  0
  1 24  1  0
  6  1  1  0
 16  7  1  0
 10  4  1  0
  8 13  1  6
M  END
>  <Name>  (1) 
1-O-Acetylpseudolycorine|| Pseudolycorine 1-acetate

>  <Formula>  (1) 
C18H21NO5

>  <Mw>  (1) 
331.14197279

>  <CAS RN>  (1) 
104386-94-9

>  <InChIKey>  (1) 
XDOFGDWVTQSFBM-XWKUYIJPNA-N

>  <InChICode>  (1) 
InChI=1S/C18H21NO5/c1-9(20)24-18-14(22)5-10-3-4-19-8-11-6-15(23-2)13(21)7-12(11)16(18)17(10)19/h5-7,14,16-18,21-22H,3-4,8H2,1-2H3/t14-,16-,17+,18+/m0/s1

>  <SMILES>  (1) 
c1(c(cc2c(c1)[C@H]1[C@@H]3N(C2)CCC3=C[C@@H]([C@H]1OC(=O)C)O)OC)O

>  <C_ID>  (1) 
C00024352

>  <Contains_Nitrogen>  (1) 
True

>  <In_Species>  (1) 
Narcissus requienii Roem.

>  <NMRSHIFTDB2_ASSIGNMENT>  (1) 
1, 150.9 \
2, 147.7 \
3, 106.8 \
4, 129.1 \
5, 126.6 \
6, 114.7 \
7, 42.3 \
8, 60.6 \
10, 56.8 \
11, 53.4 \
12, 28.2 \
13, 143.6 \
14, 132.4 \
15, 68.1 \
16, 73.8 \
18, 169.8 \
20, 21.0 \
23, 56.1 \

>  <NMR_score>  (1) 
1.000

$$$$
C00024353
     RDKit          2D

 24 27  0  0  0  0  0  0  0  0999 V2000
   -1.6004   -1.9940    0.0000 C   0  0  0  0  0  0  0  0  0  0  0  0
   -2.4892   -1.3990    0.0000 C   0  0  0  0  0  0  0  0  0  0  0  0
   -2.4686   -0.3530    0.0000 C   0  0  0  0  0  0  0  0  0  0  0  0
   -1.5562    0.1010    0.0000 C   0  0  0  0  0  0  0  0  0  0  0  0
   -0.6300   -0.4624    0.0000 C   0  0  0  0  0  0  0  0  0  0  0  0
   -0.6916   -1.5016    0.0000 C   0  0  0  0  0  0  0  0  0  0  0  0
    0.2426   -0.0150    0.0000 C   0  0  0  0  0  0  0  0  0  0  0  0
    0.2438    1.0186    0.0000 C   0  0  0  0  0  0  0  0  0  0  0  0
   -0.5644    1.6114    0.0000 N   0  0  0  0  0  0  0  0  0  0  0  0
   -1.4782    1.1470    0.0000 C   0  0  0  0  0  0  0  0  0  0  0  0
   -0.2354    2.5552    0.0000 C   0  0  0  0  0  0  0  0  0  0  0  0
    0.8136    2.5476    0.0000 C   0  0  0  0  0  0  0  0  0  0  0  0
    1.0872    1.5440    0.0000 C   0  0  0  0  0  0  0  0  0  0  0  0
    2.0180    1.0724    0.0000 C   0  0  0  0  0  0  0  0  0  0  0  0
    2.0140   -0.0004    0.0000 C   0  0  0  0  0  0  0  0  0  0  0  0
    1.1170   -0.5540    0.0000 C   0  0  0  0  0  0  0  0  0  0  0  0
    1.1158   -1.5438    0.0000 O   0  0  0  0  0  0  0  0  0  0  0  0
    2.8914   -0.5112    0.0000 O   0  0  0  0  0  0  0  0  0  0  0  0
    3.7674   -0.0346    0.0000 C   0  0  0  0  0  0  0  0  0  0  0  0
    3.7970    0.9628    0.0000 O   0  0  0  0  0  0  0  0  0  0  0  0
    4.6190   -0.5614    0.0000 C   0  0  0  0  0  0  0  0  0  0  0  0
   -3.3850   -1.8660    0.0000 O   0  0  0  0  0  0  0  0  0  0  0  0
   -4.2284   -1.3288    0.0000 C   0  0  0  0  0  0  0  0  0  0  0  0
   -1.6466   -2.9826    0.0000 O   0  0  0  0  0  0  0  0  0  0  0  0
  1  2  2  0
  2  3  1  0
  3  4  2  0
  4  5  1  0
  5  6  2  0
  7  5  1  1
  7  8  1  0
  8  9  1  0
  9 10  1  0
  9 11  1  0
 11 12  1  0
 12 13  1  0
 13 14  2  0
 14 15  1  0
 15 16  1  0
 16 17  1  1
 15 18  1  6
 18 19  1  0
 19 20  2  0
 19 21  1  0
  2 22  1  0
 22 23  1  0
  1 24  1  0
  6  1  1  0
 16  7  1  0
 10  4  1  0
  8 13  1  6
M  END
>  <Name>  (2) 
2-O-Acetylpseudolycorine

>  <Formula>  (2) 
C18H21NO5

>  <Mw>  (2) 
331.14197279

>  <CAS RN>  (2) 
104386-93-8

>  <InChIKey>  (2) 
GLXYETATWBSVGO-JBTBMYCBNA-N

>  <InChICode>  (2) 
InChI=1S/C18H21NO5/c1-9(20)24-15-5-10-3-4-19-8-11-6-14(23-2)13(21)7-12(11)16(17(10)19)18(15)22/h5-7,15-18,21-22H,3-4,8H2,1-2H3/t15-,16-,17+,18+/m0/s1

>  <SMILES>  (2) 
c1(c(cc2c(c1)[C@H]1[C@@H]3N(C2)CCC3=C[C@@H]([C@H]1O)OC(=O)C)OC)O

>  <C_ID>  (2) 
C00024353

>  <Contains_Nitrogen>  (2) 
True

>  <In_Species>  (2) 
Narcissus requienii Roem.

>  <NMRSHIFTDB2_ASSIGNMENT>  (2) 
1, 150.9 \
2, 147.7 \
3, 106.8 \
4, 129.1 \
5, 126.6 \
6, 114.7 \
7, 41.2 \
8, 60.6 \
10, 56.8 \
11, 53.4 \
12, 28.2 \
13, 143.6 \
14, 114.7 \
15, 69.1 \
16, 68.1 \
19, 170.1 \
21, 20.7 \
23, 56.1 \

>  <NMR_score>  (2) 
1.000

$$$$
C00024437
     RDKit          2D

 24 27  0  0  0  0  0  0  0  0999 V2000
   -1.0548   -1.7500    0.0000 C   0  0  0  0  0  0  0  0  0  0  0  0
   -1.9436   -1.1554    0.0000 C   0  0  0  0  0  0  0  0  0  0  0  0
   -1.9228   -0.1098    0.0000 C   0  0  0  0  0  0  0  0  0  0  0  0
   -1.0094    0.3448    0.0000 C   0  0  0  0  0  0  0  0  0  0  0  0
   -0.0838   -0.2180    0.0000 C   0  0  0  0  0  0  0  0  0  0  0  0
   -0.1452   -1.2574    0.0000 C   0  0  0  0  0  0  0  0  0  0  0  0
    0.7906    0.2306    0.0000 C   0  0  0  0  0  0  0  0  0  0  0  0
    0.7920    1.2606    0.0000 C   0  0  0  0  0  0  0  0  0  0  0  0
   -0.0168    1.8532    0.0000 N   0  0  0  0  0  0  0  0  0  0  0  0
   -0.9314    1.3888    0.0000 C   0  0  0  0  0  0  0  0  0  0  0  0
    0.3120    2.7980    0.0000 C   0  0  0  0  0  0  0  0  0  0  0  0
    1.3618    2.7906    0.0000 C   0  0  0  0  0  0  0  0  0  0  0  0
    1.6360    1.7874    0.0000 C   0  0  0  0  0  0  0  0  0  0  0  0
    2.5664    1.3184    0.0000 C   0  0  0  0  0  0  0  0  0  0  0  0
    2.5626    0.2496    0.0000 C   0  0  0  0  0  0  0  0  0  0  0  0
    1.6634   -0.3062    0.0000 C   0  0  0  0  0  0  0  0  0  0  0  0
    1.6514   -1.2998    0.0000 O   0  0  0  0  0  0  0  0  0  0  0  0
    2.5022   -1.8224    0.0000 C   0  0  0  0  0  0  0  0  0  0  0  0
    2.4718   -2.8228    0.0000 O   0  0  0  0  0  0  0  0  0  0  0  0
    3.3816   -1.3492    0.0000 C   0  0  0  0  0  0  0  0  0  0  0  0
    3.4442   -0.2436    0.0000 O   0  0  0  0  0  0  0  0  0  0  0  0
   -2.8392   -1.6226    0.0000 O   0  0  0  0  0  0  0  0  0  0  0  0
   -1.1010   -2.7388    0.0000 O   0  0  0  0  0  0  0  0  0  0  0  0
   -1.9896   -3.1978    0.0000 C   0  0  0  0  0  0  0  0  0  0  0  0
  1  2  2  0
  2  3  1  0
  3  4  2  0
  4  5  1  0
  5  6  2  0
  7  5  1  1
  7  8  1  0
  8  9  1  0
  9 10  1  0
  9 11  1  0
 11 12  1  0
 12 13  1  0
 13 14  2  0
 14 15  1  0
 15 16  1  0
 16 17  1  1
 17 18  1  0
 18 19  2  0
 18 20  1  0
 15 21  1  6
  2 22  1  0
  1 23  1  0
 23 24  1  0
  6  1  1  0
 16  7  1  0
 10  4  1  0
  8 13  1  6
M  END
>  <Name>  (3) 
Sternbergine

>  <Formula>  (3) 
C18H21NO5

>  <Mw>  (3) 
331.14197279

>  <CAS RN>  (3) 
96253-76-8

>  <InChIKey>  (3) 
JKXPUEOBLNILSU-XWKUYIJPNA-N

>  <InChICode>  (3) 
InChI=1S/C18H21NO5/c1-9(20)24-18-14(22)5-10-3-4-19-8-11-6-13(21)15(23-2)7-12(11)16(18)17(10)19/h5-7,14,16-18,21-22H,3-4,8H2,1-2H3/t14-,16-,17+,18+/m0/s1

>  <SMILES>  (3) 
c1(c(cc2c(c1)[C@H]1[C@@H]3N(C2)CCC3=C[C@@H]([C@H]1OC(=O)C)O)O)OC

>  <C_ID>  (3) 
C00024437

>  <Contains_Nitrogen>  (3) 
True

>  <In_Species>  (3) 
Ammocharis tinneana||Brunsvigia josephinae||Brunsvigia radulosa||Sternbergia lutea ker-Gawl

>  <NMRSHIFTDB2_ASSIGNMENT>  (3) 
1, 145.7 \
2, 148.2 \
3, 113.6 \
4, 128.4 \
5, 126.6 \
6, 109.9 \
7, 42.3 \
8, 60.6 \
10, 56.8 \
11, 53.4 \
12, 28.2 \
13, 143.6 \
14, 132.4 \
15, 68.1 \
16, 73.8 \
18, 169.8 \
20, 21.0 \
24, 56.1 \

>  <NMR_score>  (3) 
1.000

$$$$
C00024438
     RDKit          2D

 24 28  0  0  0  0  0  0  0  0999 V2000
    1.5824   -0.3178    0.0000 C   0  0  0  0  0  0  0  0  0  0  0  0
    1.6236   -1.3768    0.0000 C   0  0  0  0  0  0  0  0  0  0  0  0
    0.7562   -1.8876    0.0000 C   0  0  0  0  0  0  0  0  0  0  0  0
   -0.1280   -1.4126    0.0000 C   0  0  0  0  0  0  0  0  0  0  0  0
   -0.1294   -0.3268    0.0000 C   0  0  0  0  0  0  0  0  0  0  0  0
    0.7036    0.1888    0.0000 C   0  0  0  0  0  0  0  0  0  0  0  0
   -1.1706    0.2214    0.0000 C   0  0  0  0  0  0  0  0  0  0  0  0
   -2.1096   -0.3474    0.0000 C   0  0  0  0  0  0  0  0  0  0  0  0
   -2.0440   -1.4334    0.0000 O   0  0  0  0  0  0  0  0  0  0  0  0
   -1.0518   -1.9888    0.0000 C   0  0  0  0  0  0  0  0  0  0  0  0
   -2.9198    0.3940    0.0000 C   0  0  0  0  0  0  0  0  0  0  0  0
   -2.5152    1.1908    0.0000 N   0  0  0  0  0  0  0  0  0  0  0  0
   -1.1710    0.8334    0.0000 C   0  0  0  0  0  0  0  0  0  0  0  0
   -0.4826    1.5054    0.0000 C   0  0  0  0  0  0  0  0  0  0  0  0
   -0.9586    2.1474    0.0000 C   0  0  0  0  0  0  0  0  0  0  0  0
   -1.9672    1.7108    0.0000 C   0  0  0  0  0  0  0  0  0  0  0  0
   -1.6722    0.2226    0.0000 C   0  0  0  0  0  0  0  0  0  0  0  0
   -0.6932    3.1222    0.0000 O   0  0  0  0  0  0  0  0  0  0  0  0
    0.2734    3.3780    0.0000 C   0  0  0  0  0  0  0  0  0  0  0  0
   -2.9156    2.0962    0.0000 C   0  0  0  0  0  0  0  0  0  0  0  0
   -2.9444   -0.8886    0.0000 O   0  0  0  0  0  0  0  0  0  0  0  0
    2.5646   -1.6512    0.0000 O   0  0  0  0  0  0  0  0  0  0  0  0
    3.1566   -0.8180    0.0000 C   0  0  0  0  0  0  0  0  0  0  0  0
    2.5212   -0.0046    0.0000 O   0  0  0  0  0  0  0  0  0  0  0  0
  1  2  1  0
  2  3  2  0
  3  4  1  0
  4  5  2  0
  5  6  1  0
  5  7  1  0
  7  8  1  0
  8  9  1  0
  9 10  1  0
  8 11  1  0
 11 12  1  0
 12 13  1  0
 13 14  1  1
 14 15  1  0
 15 16  1  0
 16 17  2  0
 15 18  1  1
 18 19  1  0
 12 20  1  0
  8 21  1  1
  2 22  1  0
 22 23  1  0
 23 24  1  0
  6  1  2  0
 13  7  1  0
 24  1  1  0
 10  4  1  0
  7 17  1  1
M  END
>  <Name>  (4) 
Tazettine||(+)-Tazettine

>  <Formula>  (4) 
C18H21NO5

>  <Mw>  (4) 
331.14197279

>  <CAS RN>  (4) 
507-79-9

>  <InChIKey>  (4) 
YLWAQARRNQVEHD-SLFURGAINA-N

>  <InChICode>  (4) 
InChI=1S/C18H21NO5/c1-19-9-18(20)17(4-3-12(21-2)6-16(17)19)13-7-15-14(22-10-23-15)5-11(13)8-24-18/h3-5,7,12,16,20H,6,8-10H2,1-2H3/t12-,16+,17+,18-/m1/s1

>  <SMILES>  (4) 
c12c(cc3c(c1)[C@]14[C@](OC3)(CN([C@H]1C[C@@H](C=C4)OC)C)O)OCO2

>  <C_ID>  (4) 
C00024438

>  <Contains_Nitrogen>  (4) 
True

>  <In_Species>  (4) 
Brunsvigia gregaria||Cyrtanthus obliquus||Galanthus caucasicus||Galanthus elwesii||Galanthus nivalis||Hippeastrum equestre||Hippeastrum vittatum L.'Herr.||Hymenocallis arenicola Northrop H||Hymenocallis cayamansis||Hymenocallis littoralis||Hymenocallis x festalis||Leucojum aestivum L.||Lycoris aurea||Lycoris radiata||Lycoris sanguinea Maxim||Narcissus asturiensis||Narcissus bujei||Narcissus folli||Narcissus papyraceus Kerl-Gawl||Narcissus poeticus L.||Narcissus tazetta L.||Sprekelia formosissima||Sternbergia lutea ker-Gawl||Ungernia sewerzowii||Ungernia spiralis||Ungernia trisphaera||Ungernia vvedenskyi

>  <NMRSHIFTDB2_ASSIGNMENT>  (4) 
1, 146.3 \
2, 146.3 \
3, 103.7 \
4, 127.8 \
5, 125.4 \
6, 109.1 \
7, 50.1 \
8, 101.7 \
10, 65.0 \
11, 61.7 \
13, 69.9 \
14, 26.6 \
15, 72.4 \
16, 128.4 \
17, 130.5 \
19, 56.0 \
20, 41.9 \
23, 101.6 \

>  <NMR_score>  (4) 
1.000

$$$$
C00028102
     RDKit          2D

 24 28  0  0  0  0  0  0  0  0999 V2000
   -1.1216   -0.3266    0.0000 C   0  0  0  0  0  0  0  0  0  0  0  0
   -1.1190   -1.4116    0.0000 C   0  0  0  0  0  0  0  0  0  0  0  0
   -0.2346   -1.8864    0.0000 C   0  0  0  0  0  0  0  0  0  0  0  0
    0.6324   -1.3756    0.0000 C   0  0  0  0  0  0  0  0  0  0  0  0
    0.5918   -0.3190    0.0000 C   0  0  0  0  0  0  0  0  0  0  0  0
   -0.2888    0.1884    0.0000 C   0  0  0  0  0  0  0  0  0  0  0  0
    1.5312   -0.0056    0.0000 O   0  0  0  0  0  0  0  0  0  0  0  0
    2.1652   -0.8180    0.0000 C   0  0  0  0  0  0  0  0  0  0  0  0
    1.5732   -1.6504    0.0000 O   0  0  0  0  0  0  0  0  0  0  0  0
   -2.0414   -1.9886    0.0000 C   0  0  0  0  0  0  0  0  0  0  0  0
   -3.0336   -1.4362    0.0000 O   0  0  0  0  0  0  0  0  0  0  0  0
   -3.1020   -0.3520    0.0000 C   0  0  0  0  0  0  0  0  0  0  0  0
   -2.1654    0.2204    0.0000 C   0  0  0  0  0  0  0  0  0  0  0  0
   -2.1680    0.8382    0.0000 C   0  0  0  0  0  0  0  0  0  0  0  0
   -1.4852    1.5144    0.0000 C   0  0  0  0  0  0  0  0  0  0  0  0
   -1.9632    2.1538    0.0000 C   0  0  0  0  0  0  0  0  0  0  0  0
   -2.9694    1.7110    0.0000 C   0  0  0  0  0  0  0  0  0  0  0  0
   -2.6678    0.2178    0.0000 C   0  0  0  0  0  0  0  0  0  0  0  0
   -1.7022    3.1296    0.0000 O   0  0  0  0  0  0  0  0  0  0  0  0
   -0.7366    3.3896    0.0000 C   0  0  0  0  0  0  0  0  0  0  0  0
   -3.5174    1.1904    0.0000 N   0  0  0  0  0  0  0  0  0  0  0  0
   -3.9214    0.3916    0.0000 C   0  0  0  0  0  0  0  0  0  0  0  0
   -3.9208    2.0946    0.0000 C   0  0  0  0  0  0  0  0  0  0  0  0
   -3.9158   -0.9256    0.0000 O   0  0  0  0  0  0  0  0  0  0  0  0
  1  2  1  0
  2  3  2  0
  3  4  1  0
  4  5  2  0
  5  6  1  0
  5  7  1  0
  7  8  1  0
  8  9  1  0
  2 10  1  0
 10 11  1  0
 11 12  1  0
 12 13  1  0
 13 14  1  0
 14 15  1  1
 15 16  1  0
 16 17  1  0
 17 18  2  0
 16 19  1  6
 19 20  1  0
 14 21  1  0
 21 22  1  0
 21 23  1  0
 12 24  1  1
  6  1  2  0
 22 12  1  0
 13  1  1  0
  9  4  1  0
 13 18  1  1
M  END
>  <Name>  (5) 
Criwelline

>  <Formula>  (5) 
C18H21NO5

>  <Mw>  (5) 
331.14197279

>  <CAS RN>  (5) 
545-16-4

>  <InChIKey>  (5) 
YLWAQARRNQVEHD-APANUXKLNA-N

>  <InChICode>  (5) 
InChI=1S/C18H21NO5/c1-19-9-18(20)17(4-3-12(21-2)6-16(17)19)13-7-15-14(22-10-23-15)5-11(13)8-24-18/h3-5,7,12,16,20H,6,8-10H2,1-2H3/t12-,16-,17-,18+/m0/s1

>  <SMILES>  (5) 
c12c(cc3c(c1)OCO3)CO[C@]1([C@@]32[C@H](C[C@H](C=C3)OC)N(C1)C)O

>  <C_ID>  (5) 
C00028102

>  <Contains_Nitrogen>  (5) 
True

>  <In_Species>  (5) 
Hymenocallis cayamansis

>  <NMRSHIFTDB2_ASSIGNMENT>  (5) 
1, 125.4 \
2, 127.8 \
3, 103.7 \
4, 146.3 \
5, 146.3 \
6, 109.1 \
8, 101.6 \
10, 65.0 \
12, 101.7 \
13, 50.1 \
14, 69.9 \
15, 26.6 \
16, 72.4 \
17, 128.4 \
18, 130.5 \
20, 56.0 \
22, 61.7 \
23, 41.9 \

>  <NMR_score>  (5) 
1.000

$$$$
C00001561
     RDKit          2D

 24 28  0  0  0  0  0  0  0  0999 V2000
    1.3642    1.9066    0.0000 C   0  0  0  0  0  0  0  0  0  0  0  0
    1.5782    0.8004    0.0000 C   0  0  0  0  0  0  0  0  0  0  0  0
    0.6344    0.0392    0.0000 C   0  0  0  0  0  0  0  0  0  0  0  0
   -0.2258    0.3576    0.0000 C   0  0  0  0  0  0  0  0  0  0  0  0
   -0.4148    1.4918    0.0000 C   0  0  0  0  0  0  0  0  0  0  0  0
    0.3788    2.2310    0.0000 C   0  0  0  0  0  0  0  0  0  0  0  0
    0.3434    3.2440    0.0000 O   0  0  0  0  0  0  0  0  0  0  0  0
    1.3008    3.5518    0.0000 C   0  0  0  0  0  0  0  0  0  0  0  0
    1.9448    2.7324    0.0000 O   0  0  0  0  0  0  0  0  0  0  0  0
   -1.5014   -0.3834    0.0000 C   0  0  0  0  0  0  0  0  0  0  0  0
   -1.5052   -1.5074    0.0000 C   0  0  0  0  0  0  0  0  0  0  0  0
   -0.1834   -1.8002    0.0000 N   0  0  0  0  0  0  0  0  0  0  0  0
    0.7762   -0.9318    0.0000 C   0  0  0  0  0  0  0  0  0  0  0  0
    0.1302   -1.1452    0.0000 C   0  0  0  0  0  0  0  0  0  0  0  0
   -0.7078   -0.1274    0.0000 C   0  0  0  0  0  0  0  0  0  0  0  0
   -0.2552   -0.4516    0.0000 O   0  0  0  0  0  0  0  0  0  0  0  0
   -2.3654   -2.0204    0.0000 C   0  0  0  0  0  0  0  0  0  0  0  0
   -3.2878   -1.4720    0.0000 C   0  0  0  0  0  0  0  0  0  0  0  0
   -3.3096   -0.4130    0.0000 C   0  0  0  0  0  0  0  0  0  0  0  0
   -2.3936    0.1060    0.0000 C   0  0  0  0  0  0  0  0  0  0  0  0
   -4.1738   -1.9704    0.0000 O   0  0  0  0  0  0  0  0  0  0  0  0
   -4.1990   -2.9672    0.0000 C   0  0  0  0  0  0  0  0  0  0  0  0
    2.5070    0.4616    0.0000 O   0  0  0  0  0  0  0  0  0  0  0  0
    3.2726    1.1056    0.0000 C   0  0  0  0  0  0  0  0  0  0  0  0
  1  2  2  0
  2  3  1  0
  3  4  2  0
  4  5  1  0
  5  6  2  0
  6  7  1  0
  7  8  1  0
  8  9  1  0
  4 10  1  0
 10 11  1  0
 11 12  1  0
 12 13  1  0
 12 14  1  0
 14 15  1  0
 15 16  1  1
 11 17  1  6
 17 18  1  0
 18 19  1  0
 19 20  2  0
 18 21  1  1
 21 22  1  0
  2 23  1  0
 23 24  1  0
  6  1  1  0
 10 20  1  6
  9  1  1  0
 15 10  1  0
 13  3  1  0
M  END
>  <Name>  (6) 
Ambelline||(-)-Ambelline

>  <Formula>  (6) 
C18H21NO5

>  <Mw>  (6) 
331.14197279

>  <CAS RN>  (6) 
3660-62-6

>  <InChIKey>  (6) 
QAHZAHIPKNLGAS-KMWRVGFYNA-N

>  <InChICode>  (6) 
InChI=1S/C18H21NO5/c1-21-10-3-4-18-12-6-13-17(24-9-23-13)16(22-2)11(12)7-19(8-15(18)20)14(18)5-10/h3-4,6,10,14-15,20H,5,7-9H2,1-2H3/t10-,14+,15-,18+/m0/s1

>  <SMILES>  (6) 
c12c(c3c(cc1OCO2)[C@@]12[C@H](N(C3)C[C@@H]2O)C[C@H](C=C1)OC)OC

>  <C_ID>  (6) 
C00001561

>  <Contains_Nitrogen>  (6) 
True

>  <In_Species>  (6) 
Amaryllis belladonna||Ammocharis tinneana||Brunsvigia josephinae||Brunsvigia littoralis||Brunsvigia rosea||Crinum amabile||Crinum laurentii||Crinum stuhlmannii||Hippeastrum punecium||Nerine filifolia

>  <NMRSHIFTDB2_ASSIGNMENT>  (6) 
1, 137.4 \
2, 140.4 \
3, 118.3 \
4, 141.6 \
5, 105.5 \
6, 148.0 \
8, 100.2 \
10, 51.7 \
11, 67.7 \
13, 55.8 \
14, 63.9 \
15, 81.3 \
17, 30.2 \
18, 71.9 \
19, 123.7 \
20, 137.4 \
22, 56.0 \
24, 61.0 \

>  <NMR_score>  (6) 
0.944

$$$$
C00024356
     RDKit          2D

 24 27  0  0  0  0  0  0  0  0999 V2000
   -1.6278   -0.2852    0.0000 C   0  0  0  0  0  0  0  0  0  0  0  0
   -1.6286   -1.2852    0.0000 C   0  0  0  0  0  0  0  0  0  0  0  0
   -0.7630   -1.7858    0.0000 C   0  0  0  0  0  0  0  0  0  0  0  0
    0.1034   -1.2866    0.0000 C   0  0  0  0  0  0  0  0  0  0  0  0
    0.1042   -0.2866    0.0000 C   0  0  0  0  0  0  0  0  0  0  0  0
   -0.7614    0.2142    0.0000 C   0  0  0  0  0  0  0  0  0  0  0  0
    0.9706    0.2128    0.0000 C   0  0  0  0  0  0  0  0  0  0  0  0
    1.8362   -0.2880    0.0000 C   0  0  0  0  0  0  0  0  0  0  0  0
    1.8354   -1.2880    0.0000 O   0  0  0  0  0  0  0  0  0  0  0  0
    0.9690   -1.7872    0.0000 C   0  0  0  0  0  0  0  0  0  0  0  0
    0.9682   -2.7872    0.0000 O   0  0  0  0  0  0  0  0  0  0  0  0
    2.7026    0.2114    0.0000 C   0  0  0  0  0  0  0  0  0  0  0  0
    2.7034    1.2114    0.0000 C   0  0  0  0  0  0  0  0  0  0  0  0
    1.8378    1.7120    0.0000 C   0  0  0  0  0  0  0  0  0  0  0  0
    0.9714    1.2128    0.0000 C   0  0  0  0  0  0  0  0  0  0  0  0
    0.2288    1.8826    0.0000 N   0  0  0  0  0  0  0  0  0  0  0  0
    0.6362    2.7956    0.0000 C   0  0  0  0  0  0  0  0  0  0  0  0
    1.6306    2.6904    0.0000 C   0  0  0  0  0  0  0  0  0  0  0  0
   -0.7494    1.6756    0.0000 C   0  0  0  0  0  0  0  0  0  0  0  0
    3.5682   -0.2892    0.0000 O   0  0  0  0  0  0  0  0  0  0  0  0
   -2.4950   -1.7844    0.0000 O   0  0  0  0  0  0  0  0  0  0  0  0
   -2.4958   -2.7844    0.0000 C   0  0  0  0  0  0  0  0  0  0  0  0
   -2.4934    0.2156    0.0000 O   0  0  0  0  0  0  0  0  0  0  0  0
   -3.3598   -0.2838    0.0000 C   0  0  0  0  0  0  0  0  0  0  0  0
  1  2  2  0
  2  3  1  0
  3  4  2  0
  4  5  1  0
  5  6  2  0
  7  5  1  1
  7  8  1  0
  8  9  1  1
  9 10  1  0
 10 11  2  0
  8 12  1  0
 12 13  1  0
 13 14  2  0
 14 15  1  0
 15 16  1  6
 16 17  1  0
 17 18  1  0
 16 19  1  0
 12 20  1  6
  2 21  1  0
 21 22  1  0
  1 23  1  0
 23 24  1  0
  6  1  1  0
 15  7  1  0
 10  4  1  0
 18 14  1  0
M  END
>  <Name>  (7) 
5alpha-Hydroxyhomolycorine

>  <Formula>  (7) 
C18H21NO5

>  <Mw>  (7) 
331.14197279

>  <CAS RN>  (7) 
13255-05-5

>  <InChIKey>  (7) 
UZEYEGOQLLCBFN-LGLOVAMMNA-N

>  <InChICode>  (7) 
InChI=1S/C18H21NO5/c1-19-5-4-9-6-12(20)17-15(16(9)19)10-7-13(22-2)14(23-3)8-11(10)18(21)24-17/h6-8,12,15-17,20H,4-5H2,1-3H3/t12-,15-,16+,17+/m0/s1

>  <SMILES>  (7) 
c1(c(cc2c(c1)[C@@H]1[C@H](OC2=O)[C@H](C=C2[C@H]1N(CC2)C)O)OC)OC

>  <C_ID>  (7) 
C00024356

>  <Contains_Nitrogen>  (7) 
True

>  <In_Species>  (7) 
Leucojum vernum

>  <NMRSHIFTDB2_ASSIGNMENT>  (7) 
1, 147.6 \
2, 148.2 \
3, 109.9 \
4, 128.0 \
5, 137.8 \
6, 109.9 \
7, 42.3 \
8, 78.3 \
10, 163.9 \
12, 67.0 \
13, 132.4 \
14, 143.6 \
15, 66.4 \
17, 56.7 \
18, 28.1 \
19, 43.8 \
22, 56.0 \
24, 56.2 \

>  <NMR_score>  (7) 
0.944

$$$$
C00027624
     RDKit          2D

 24 27  0  0  0  0  0  0  0  0999 V2000
   -1.7916   -0.6986    0.0000 C   0  0  0  0  0  0  0  0  0  0  0  0
   -1.7924   -1.6986    0.0000 C   0  0  0  0  0  0  0  0  0  0  0  0
   -0.9268   -2.1992    0.0000 C   0  0  0  0  0  0  0  0  0  0  0  0
   -0.0604   -1.7000    0.0000 C   0  0  0  0  0  0  0  0  0  0  0  0
   -0.0596   -0.7000    0.0000 C   0  0  0  0  0  0  0  0  0  0  0  0
   -0.9252   -0.1992    0.0000 C   0  0  0  0  0  0  0  0  0  0  0  0
    0.8068   -0.2006    0.0000 C   0  0  0  0  0  0  0  0  0  0  0  0
    1.6724   -0.7014    0.0000 C   0  0  0  0  0  0  0  0  0  0  0  0
    1.6716   -1.7014    0.0000 O   0  0  0  0  0  0  0  0  0  0  0  0
    0.8052   -2.2006    0.0000 C   0  0  0  0  0  0  0  0  0  0  0  0
    0.8044   -3.2006    0.0000 O   0  0  0  0  0  0  0  0  0  0  0  0
    2.5388   -0.2020    0.0000 C   0  0  0  0  0  0  0  0  0  0  0  0
    2.5396    0.7980    0.0000 C   0  0  0  0  0  0  0  0  0  0  0  0
    1.6740    1.2986    0.0000 C   0  0  0  0  0  0  0  0  0  0  0  0
    0.8076    0.7994    0.0000 C   0  0  0  0  0  0  0  0  0  0  0  0
    0.0650    1.4692    0.0000 N   0  0  0  0  0  0  0  0  0  0  0  0
    0.4724    2.3822    0.0000 C   0  0  0  0  0  0  0  0  0  0  0  0
    1.4668    2.2770    0.0000 C   0  0  0  0  0  0  0  0  0  0  0  0
   -0.9132    1.2622    0.0000 C   0  0  0  0  0  0  0  0  0  0  0  0
    3.4044   -0.7028    0.0000 O   0  0  0  0  0  0  0  0  0  0  0  0
    4.2708   -0.2034    0.0000 C   0  0  0  0  0  0  0  0  0  0  0  0
   -2.6588   -2.1980    0.0000 O   0  0  0  0  0  0  0  0  0  0  0  0
   -2.6572   -0.1980    0.0000 O   0  0  0  0  0  0  0  0  0  0  0  0
   -3.5236   -0.6972    0.0000 C   0  0  0  0  0  0  0  0  0  0  0  0
  1  2  2  0
  2  3  1  0
  3  4  2  0
  4  5  1  0
  5  6  2  0
  7  5  1  1
  7  8  1  0
  8  9  1  1
  9 10  1  0
 10 11  2  0
  8 12  1  0
 12 13  1  0
 13 14  2  0
 14 15  1  0
 15 16  1  6
 16 17  1  0
 17 18  1  0
 16 19  1  0
 12 20  1  6
 20 21  1  0
  2 22  1  0
  1 23  1  0
 23 24  1  0
  6  1  1  0
 15  7  1  0
 10  4  1  0
 18 14  1  0
M  END
>  <Name>  (8) 
(+)-5-Methoxy-9-O-demethylhomolycorine||(+)-O9-Demethyl-5a-methoxyhomolycorine

>  <Formula>  (8) 
C18H21NO5

>  <Mw>  (8) 
331.14197279

>  <CAS RN>  (8) 
167416-33-3

>  <InChIKey>  (8) 
YOFVRVTXKMQUBA-FDQDZQOGNA-N

>  <InChICode>  (8) 
InChI=1S/C18H21NO5/c1-19-5-4-9-6-14(23-3)17-15(16(9)19)10-8-13(22-2)12(20)7-11(10)18(21)24-17/h6-8,14-17,20H,4-5H2,1-3H3/t14-,15-,16+,17+/m0/s1

>  <SMILES>  (8) 
c1(c(cc2c(c1)[C@@H]1[C@H](OC2=O)[C@H](C=C2[C@H]1N(CC2)C)OC)O)OC

>  <C_ID>  (8) 
C00027624

>  <Contains_Nitrogen>  (8) 
True

>  <In_Species>  (8) 
Galanthus elewesii

>  <NMRSHIFTDB2_ASSIGNMENT>  (8) 
1, 145.7 \
2, 145.9 \
3, 112.3 \
4, 128.0 \
5, 137.8 \
6, 109.9 \
7, 42.3 \
8, 78.3 \
10, 163.9 \
12, 66.8 \
13, 114.7 \
14, 143.6 \
15, 66.4 \
17, 56.7 \
18, 28.1 \
19, 43.8 \
21, 52.1 \
24, 56.1 \

>  <NMR_score>  (8) 
0.944

$$$$
C00027975
     RDKit          2D

 24 28  0  0  0  0  0  0  0  0999 V2000
   -1.5054   -1.5082    0.0000 C   0  0  0  0  0  0  0  0  0  0  0  0
   -0.1864   -1.7988    0.0000 N   0  0  0  0  0  0  0  0  0  0  0  0
    0.7720   -0.9306    0.0000 C   0  0  0  0  0  0  0  0  0  0  0  0
    0.6310    0.0378    0.0000 C   0  0  0  0  0  0  0  0  0  0  0  0
    1.5766    0.7982    0.0000 C   0  0  0  0  0  0  0  0  0  0  0  0
    1.3640    1.9044    0.0000 C   0  0  0  0  0  0  0  0  0  0  0  0
    0.3798    2.2304    0.0000 C   0  0  0  0  0  0  0  0  0  0  0  0
   -0.4164    1.4910    0.0000 C   0  0  0  0  0  0  0  0  0  0  0  0
   -0.2286    0.3562    0.0000 C   0  0  0  0  0  0  0  0  0  0  0  0
   -1.5034   -0.3846    0.0000 C   0  0  0  0  0  0  0  0  0  0  0  0
   -2.3982    0.1034    0.0000 C   0  0  0  0  0  0  0  0  0  0  0  0
   -3.3140   -0.4170    0.0000 C   0  0  0  0  0  0  0  0  0  0  0  0
   -3.2894   -1.4760    0.0000 C   0  0  0  0  0  0  0  0  0  0  0  0
   -2.3650   -2.0234    0.0000 C   0  0  0  0  0  0  0  0  0  0  0  0
   -4.1748   -1.9758    0.0000 O   0  0  0  0  0  0  0  0  0  0  0  0
   -4.1986   -2.9726    0.0000 C   0  0  0  0  0  0  0  0  0  0  0  0
   -0.7118   -0.1278    0.0000 C   0  0  0  0  0  0  0  0  0  0  0  0
    0.1264   -1.1440    0.0000 C   0  0  0  0  0  0  0  0  0  0  0  0
   -0.2656   -0.4550    0.0000 O   0  0  0  0  0  0  0  0  0  0  0  0
    0.3462    3.2442    0.0000 O   0  0  0  0  0  0  0  0  0  0  0  0
    1.3034    3.5498    0.0000 C   0  0  0  0  0  0  0  0  0  0  0  0
    1.9458    2.7286    0.0000 O   0  0  0  0  0  0  0  0  0  0  0  0
    2.5050    0.4582    0.0000 O   0  0  0  0  0  0  0  0  0  0  0  0
    3.2714    1.1012    0.0000 C   0  0  0  0  0  0  0  0  0  0  0  0
  1  2  1  0
  2  3  1  0
  3  4  1  0
  4  5  2  0
  5  6  1  0
  6  7  2  0
  7  8  1  0
  8  9  2  0
  9 10  1  0
 10 11  1  6
 11 12  2  0
 12 13  1  0
 13 14  1  0
 13 15  1  6
 15 16  1  0
 10 17  1  0
 17 18  1  0
 17 19  1  6
  7 20  1  0
 20 21  1  0
 21 22  1  0
  5 23  1  0
 23 24  1  0
 10  1  1  0
  1 14  1  6
 18  2  1  0
  9  4  1  0
 22  6  1  0
M  END
>  <Name>  (9) 
Brunsbelline

>  <Formula>  (9) 
C18H21NO5

>  <Mw>  (9) 
331.14197279

>  <CAS RN>  (9) 
171119-08-7

>  <InChIKey>  (9) 
QAHZAHIPKNLGAS-BUARBLRKNA-N

>  <InChICode>  (9) 
InChI=1S/C18H21NO5/c1-21-10-3-4-18-12-6-13-17(24-9-23-13)16(22-2)11(12)7-19(8-15(18)20)14(18)5-10/h3-4,6,10,14-15,20H,5,7-9H2,1-2H3/t10-,14-,15-,18-/m1/s1

>  <SMILES>  (9) 
[C@H]12N3Cc4c(c5c(cc4[C@@]1(C=C[C@H](C2)OC)[C@@H](C3)O)OCO5)OC

>  <C_ID>  (9) 
C00027975

>  <Contains_Nitrogen>  (9) 
True

>  <In_Species>  (9) 
Brunsvigia josephinae

>  <NMRSHIFTDB2_ASSIGNMENT>  (9) 
1, 67.7 \
3, 55.8 \
4, 118.3 \
5, 140.4 \
6, 137.4 \
7, 148.0 \
8, 105.5 \
9, 141.6 \
10, 51.7 \
11, 137.4 \
12, 124.3 \
13, 71.9 \
14, 30.4 \
16, 56.5 \
17, 81.3 \
18, 63.9 \
21, 100.2 \
24, 61.0 \

>  <NMR_score>  (9) 
0.944

$$$$
C00001580
     RDKit          2D

 24 28  0  0  0  0  0  0  0  0999 V2000
    2.4360   -1.9254    0.0000 C   0  0  0  0  0  0  0  0  0  0  0  0
    1.6012   -2.4290    0.0000 C   0  0  0  0  0  0  0  0  0  0  0  0
    0.7480   -1.9000    0.0000 C   0  0  0  0  0  0  0  0  0  0  0  0
    0.7440   -0.8144    0.0000 C   0  0  0  0  0  0  0  0  0  0  0  0
    1.5774   -0.3628    0.0000 C   0  0  0  0  0  0  0  0  0  0  0  0
    2.4464   -0.8624    0.0000 C   0  0  0  0  0  0  0  0  0  0  0  0
    3.3862   -0.5424    0.0000 O   0  0  0  0  0  0  0  0  0  0  0  0
    3.9830   -1.3830    0.0000 C   0  0  0  0  0  0  0  0  0  0  0  0
    3.3982   -2.2324    0.0000 O   0  0  0  0  0  0  0  0  0  0  0  0
   -0.2280   -0.2498    0.0000 C   0  0  0  0  0  0  0  0  0  0  0  0
   -1.0454   -0.7582    0.0000 C   0  0  0  0  0  0  0  0  0  0  0  0
   -1.0646   -1.8558    0.0000 O   0  0  0  0  0  0  0  0  0  0  0  0
   -0.1466   -2.3800    0.0000 C   0  0  0  0  0  0  0  0  0  0  0  0
   -0.1616   -3.3900    0.0000 O   0  0  0  0  0  0  0  0  0  0  0  0
   -1.8108   -0.1112    0.0000 C   0  0  0  0  0  0  0  0  0  0  0  0
   -1.4344    0.6976    0.0000 N   0  0  0  0  0  0  0  0  0  0  0  0
   -0.3572    0.6030    0.0000 C   0  0  0  0  0  0  0  0  0  0  0  0
   -0.8548    1.0424    0.0000 C   0  0  0  0  0  0  0  0  0  0  0  0
   -0.3926    1.6982    0.0000 C   0  0  0  0  0  0  0  0  0  0  0  0
    0.8032    1.1806    0.0000 C   0  0  0  0  0  0  0  0  0  0  0  0
    0.5618   -0.2108    0.0000 C   0  0  0  0  0  0  0  0  0  0  0  0
   -0.6652    2.6682    0.0000 O   0  0  0  0  0  0  0  0  0  0  0  0
    0.0384    3.3800    0.0000 C   0  0  0  0  0  0  0  0  0  0  0  0
   -2.2718    1.2672    0.0000 C   0  0  0  0  0  0  0  0  0  0  0  0
  1  2  2  0
  2  3  1  0
  3  4  2  0
  4  5  1  0
  5  6  2  0
  6  7  1  0
  7  8  1  0
  8  9  1  0
  4 10  1  0
 10 11  1  0
 11 12  1  0
 12 13  1  0
 13 14  1  6
 11 15  1  1
 15 16  1  0
 16 17  1  0
 17 18  1  1
 18 19  1  0
 19 20  1  0
 20 21  2  0
 19 22  1  6
 22 23  1  0
 16 24  1  0
  6  1  1  0
 17 10  1  0
  9  1  1  0
 10 21  1  1
 13  3  1  0
M  END
>  <Name>  (10) 
Pretazettine

>  <Formula>  (10) 
C18H21NO5

>  <Mw>  (10) 
331.14197279

>  <CAS RN>  (10) 
17322-84-8

>  <InChIKey>  (10) 
KLJOYDMUWKSYBP-MCWXQHLKNA-N

>  <InChICode>  (10) 
InChI=1S/C18H21NO5/c1-19-8-16-18(4-3-10(21-2)5-15(18)19)12-7-14-13(22-9-23-14)6-11(12)17(20)24-16/h3-4,6-7,10,15-17,20H,5,8-9H2,1-2H3/t10-,15+,16+,17-,18+/m1/s1

>  <SMILES>  (10) 
c12cc3c(cc1OCO2)[C@]12[C@@H](O[C@H]3O)CN([C@H]1C[C@@H](C=C2)OC)C

>  <C_ID>  (10) 
C00001580

>  <Contains_Nitrogen>  (10) 
True

>  <In_Species>  (10) 
Hippeastrum equestre||Hymenocallis cayamansis||Hymenocallis tubiflora||Ismene calithina||Leucojum aestivum||Lycoris radiata||Narcissus tazetta||Pancratium biflorum||Sprekelia formosissima||Zephyranthes candida||Zephyranthes carinata

>  <NMRSHIFTDB2_ASSIGNMENT>  (10) 
1, 147.2 \
2, 110.6 \
3, 137.4 \
4, 141.6 \
5, 105.5 \
6, 147.1 \
8, 101.3 \
10, 51.7 \
11, 90.8 \
13, 90.7 \
15, 57.1 \
17, 64.4 \
18, 30.4 \
19, 71.9 \
20, 124.3 \
21, 137.4 \
23, 56.0 \
24, 42.6 \

>  <NMR_score>  (10) 
0.889

$$$$
C00024440
     RDKit          2D

 24 29  0  0  0  0  0  0  0  0999 V2000
    2.2934   -1.0974    0.0000 C   0  0  0  0  0  0  0  0  0  0  0  0
    2.2198   -0.0972    0.0000 C   0  0  0  0  0  0  0  0  0  0  0  0
    1.4766    0.3508    0.0000 C   0  0  0  0  0  0  0  0  0  0  0  0
    0.8656   -0.0334    0.0000 C   0  0  0  0  0  0  0  0  0  0  0  0
    0.8488   -1.2674    0.0000 C   0  0  0  0  0  0  0  0  0  0  0  0
    1.5214   -1.5918    0.0000 C   0  0  0  0  0  0  0  0  0  0  0  0
   -0.4322   -1.4100    0.0000 C   0  0  0  0  0  0  0  0  0  0  0  0
   -0.4310   -0.9434    0.0000 C   0  0  0  0  0  0  0  0  0  0  0  0
   -0.9722   -0.4352    0.0000 N   0  0  0  0  0  0  0  0  0  0  0  0
   -0.4480    0.3580    0.0000 C   0  0  0  0  0  0  0  0  0  0  0  0
   -1.7402   -0.9552    0.0000 C   0  0  0  0  0  0  0  0  0  0  0  0
   -1.4232   -1.6968    0.0000 C   0  0  0  0  0  0  0  0  0  0  0  0
   -0.0334   -0.7966    0.0000 C   0  0  0  0  0  0  0  0  0  0  0  0
    0.7966   -1.8722    0.0000 C   0  0  0  0  0  0  0  0  0  0  0  0
    0.4702   -2.4076    0.0000 C   0  0  0  0  0  0  0  0  0  0  0  0
   -0.2788   -2.2580    0.0000 C   0  0  0  0  0  0  0  0  0  0  0  0
   -0.0750   -3.0126    0.0000 O   0  0  0  0  0  0  0  0  0  0  0  0
    0.6864   -3.4030    0.0000 O   0  0  0  0  0  0  0  0  0  0  0  0
   -0.0030   -4.1310    0.0000 C   0  0  0  0  0  0  0  0  0  0  0  0
    1.4640    1.3420    0.0000 O   0  0  0  0  0  0  0  0  0  0  0  0
    2.3220    1.8548    0.0000 C   0  0  0  0  0  0  0  0  0  0  0  0
    3.1760    0.2792    0.0000 O   0  0  0  0  0  0  0  0  0  0  0  0
    3.7844   -0.5004    0.0000 C   0  0  0  0  0  0  0  0  0  0  0  0
    3.2486   -1.3602    0.0000 O   0  0  0  0  0  0  0  0  0  0  0  0
  1  2  1  0
  2  3  2  0
  3  4  1  0
  4  5  2  0
  5  6  1  0
  5  7  1  0
  7  8  1  0
  8  9  1  0
  9 10  1  0
  9 11  1  0
 11 12  1  0
  8 13  1  6
 13 14  1  0
 14 15  1  0
 15 16  1  0
 16 17  1  6
 14 18  1  1
 18 19  1  0
  3 20  1  0
 20 21  1  0
  2 22  1  0
 22 23  1  0
 23 24  1  0
  6  1  2  0
 16  7  1  0
 24  1  1  0
 10  4  1  0
 15 17  1  6
  7 12  1  1
M  END
>  <Name>  (11) 
Undulatine||Undulatin

>  <Formula>  (11) 
C18H21NO5

>  <Mw>  (11) 
331.14197279

>  <CAS RN>  (11) 
6882-09-3

>  <InChIKey>  (11) 
XHXKHSUJQVCHTA-FWFOQEDRNA-N

>  <InChICode>  (11) 
InChI=1S/C18H21NO5/c1-20-11-6-13-18(17-16(11)24-17)3-4-19(13)7-9-10(18)5-12-15(14(9)21-2)23-8-22-12/h5,11,13,16-17H,3-4,6-8H2,1-2H3/t11-,13-,16+,17+,18+/m1/s1

>  <SMILES>  (11) 
c12c(c(c3c(c1)[C@@]14[C@H](N(C3)CC4)C[C@H]([C@H]3[C@@H]1O3)OC)OC)OCO2

>  <C_ID>  (11) 
C00024440

>  <Contains_Nitrogen>  (11) 
True

>  <In_Species>  (11) 
Amaryllis belladonna L.||Ammocharis tinneana||Brunsvigia gregaria||Brunsvigia josephinae||Nerine filifolia||Nerine flexuosa alba

>  <NMRSHIFTDB2_ASSIGNMENT>  (11) 
1, 148.0 \
2, 137.4 \
3, 140.4 \
4, 118.3 \
5, 141.6 \
6, 105.5 \
7, 48.4 \
8, 64.4 \
10, 57.1 \
11, 52.2 \
12, 38.6 \
13, 35.5 \
14, 72.7 \
15, 52.6 \
16, 61.2 \
19, 56.7 \
21, 61.0 \
23, 100.2 \

>  <NMR_score>  (11) 
0.833

$$$$
C00029172
     RDKit          2D

 24 29  0  0  0  0  0  0  0  0999 V2000
    2.2934   -1.0974    0.0000 C   0  0  0  0  0  0  0  0  0  0  0  0
    2.2198   -0.0972    0.0000 C   0  0  0  0  0  0  0  0  0  0  0  0
    1.4766    0.3508    0.0000 C   0  0  0  0  0  0  0  0  0  0  0  0
    0.8656   -0.0334    0.0000 C   0  0  0  0  0  0  0  0  0  0  0  0
    0.8488   -1.2674    0.0000 C   0  0  0  0  0  0  0  0  0  0  0  0
    1.5214   -1.5918    0.0000 C   0  0  0  0  0  0  0  0  0  0  0  0
   -0.4322   -1.4100    0.0000 C   0  0  0  0  0  0  0  0  0  0  0  0
   -0.4310   -0.9434    0.0000 C   0  0  0  0  0  0  0  0  0  0  0  0
   -0.9722   -0.4352    0.0000 N   0  0  0  0  0  0  0  0  0  0  0  0
   -0.4480    0.3580    0.0000 C   0  0  0  0  0  0  0  0  0  0  0  0
   -1.7402   -0.9552    0.0000 C   0  0  0  0  0  0  0  0  0  0  0  0
   -1.4232   -1.6968    0.0000 C   0  0  0  0  0  0  0  0  0  0  0  0
   -0.0334   -0.7966    0.0000 C   0  0  0  0  0  0  0  0  0  0  0  0
    0.7966   -1.8722    0.0000 C   0  0  0  0  0  0  0  0  0  0  0  0
    0.4702   -2.4076    0.0000 C   0  0  0  0  0  0  0  0  0  0  0  0
   -0.2788   -2.2580    0.0000 C   0  0  0  0  0  0  0  0  0  0  0  0
   -0.0750   -3.0126    0.0000 O   0  0  0  0  0  0  0  0  0  0  0  0
    0.6864   -3.4030    0.0000 O   0  0  0  0  0  0  0  0  0  0  0  0
   -0.0030   -4.1310    0.0000 C   0  0  0  0  0  0  0  0  0  0  0  0
    1.4640    1.3420    0.0000 O   0  0  0  0  0  0  0  0  0  0  0  0
    2.3220    1.8548    0.0000 C   0  0  0  0  0  0  0  0  0  0  0  0
    3.1760    0.2792    0.0000 O   0  0  0  0  0  0  0  0  0  0  0  0
    3.7844   -0.5004    0.0000 C   0  0  0  0  0  0  0  0  0  0  0  0
    3.2486   -1.3602    0.0000 O   0  0  0  0  0  0  0  0  0  0  0  0
  1  2  1  0
  2  3  2  0
  3  4  1  0
  4  5  2  0
  5  6  1  0
  5  7  1  0
  7  8  1  0
  8  9  1  0
  9 10  1  0
  9 11  1  0
 11 12  1  0
  8 13  1  6
 13 14  1  0
 14 15  1  0
 15 16  1  0
 16 17  1  6
 14 18  1  1
 18 19  1  0
  3 20  1  0
 20 21  1  0
  2 22  1  0
 22 23  1  0
 23 24  1  0
  6  1  2  0
 16  7  1  0
 24  1  1  0
 10  4  1  0
 15 17  1  6
  7 12  1  1
M  END
>  <Name>  (12) 
Ungeremine

>  <Formula>  (12) 
C18H21NO5

>  <Mw>  (12) 
266.08171826

>  <CAS RN>  (12) 
2121-12-2

>  <InChIKey>  (12) 
XHXKHSUJQVCHTA-FWFOQEDRNA-N

>  <InChICode>  (12) 
InChI=1S/C18H21NO5/c1-20-11-6-13-18(17-16(11)24-17)3-4-19(13)7-9-10(18)5-12-15(14(9)21-2)23-8-22-12/h5,11,13,16-17H,3-4,6-8H2,1-2H3/t11-,13-,16+,17+,18+/m1/s1

>  <SMILES>  (12) 
c12c(c(c3c(c1)[C@@]14[C@H](N(C3)CC4)C[C@H]([C@H]3[C@@H]1O3)OC)OC)OCO2

>  <C_ID>  (12) 
C00029172

>  <Contains_Nitrogen>  (12) 
True

>  <In_Species>  (12) 
Galanthus nivalis||Lycoris radiata||Narcissus angustifolius subsp. transcanpathicus||Ungernia minor

>  <NMRSHIFTDB2_ASSIGNMENT>  (12) 
1, 148.0 \
2, 137.4 \
3, 140.4 \
4, 118.3 \
5, 141.6 \
6, 105.5 \
7, 48.4 \
8, 64.4 \
10, 57.1 \
11, 52.2 \
12, 38.6 \
13, 35.5 \
14, 72.7 \
15, 52.6 \
16, 61.2 \
19, 56.7 \
21, 61.0 \
23, 100.2 \

>  <NMR_score>  (12) 
0.833

$$$$
