C00001559
     RDKit          2D

 25 28  0  0  0  0  0  0  0  0999 V2000
   -0.0812   -1.9184    0.0000 C   0  0  0  0  0  0  0  0  0  0  0  0
   -0.9462   -1.4166    0.0000 C   0  0  0  0  0  0  0  0  0  0  0  0
   -0.9442   -0.4166    0.0000 C   0  0  0  0  0  0  0  0  0  0  0  0
   -0.0770    0.0816    0.0000 C   0  0  0  0  0  0  0  0  0  0  0  0
    0.7880   -0.4202    0.0000 C   0  0  0  0  0  0  0  0  0  0  0  0
    0.7860   -1.4202    0.0000 C   0  0  0  0  0  0  0  0  0  0  0  0
    1.6510   -1.9218    0.0000 O   0  0  0  0  0  0  0  0  0  0  0  0
    2.5180   -1.4236    0.0000 C   0  0  0  0  0  0  0  0  0  0  0  0
   -0.0750    1.0816    0.0000 C   0  0  0  0  0  0  0  0  0  0  0  0
   -0.9400    1.5832    0.0000 C   0  0  0  0  0  0  0  0  0  0  0  0
   -1.8070    1.0850    0.0000 O   0  0  0  0  0  0  0  0  0  0  0  0
   -1.8092    0.0850    0.0000 C   0  0  0  0  0  0  0  0  0  0  0  0
   -2.6762   -0.4132    0.0000 O   0  0  0  0  0  0  0  0  0  0  0  0
   -0.9380    2.5832    0.0000 C   0  0  0  0  0  0  0  0  0  0  0  0
   -0.0710    3.0816    0.0000 C   0  0  0  0  0  0  0  0  0  0  0  0
    0.7940    2.5798    0.0000 C   0  0  0  0  0  0  0  0  0  0  0  0
    0.7920    1.5798    0.0000 C   0  0  0  0  0  0  0  0  0  0  0  0
    1.7424    1.2688    0.0000 N   0  0  0  0  0  0  0  0  0  0  0  0
    2.3318    2.0766    0.0000 C   0  0  0  0  0  0  0  0  0  0  0  0
    1.7458    2.8868    0.0000 C   0  0  0  0  0  0  0  0  0  0  0  0
    2.0496    0.3174    0.0000 C   0  0  0  0  0  0  0  0  0  0  0  0
   -1.8132   -1.9150    0.0000 O   0  0  0  0  0  0  0  0  0  0  0  0
   -2.6782   -1.4132    0.0000 C   0  0  0  0  0  0  0  0  0  0  0  0
   -0.0832   -2.9184    0.0000 O   0  0  0  0  0  0  0  0  0  0  0  0
   -0.9502   -3.4166    0.0000 C   0  0  0  0  0  0  0  0  0  0  0  0
  1  2  2  0
  2  3  1  0
  3  4  2  0
  4  5  1  0
  5  6  2  0
  6  7  1  0
  7  8  1  0
  9  4  1  6
  9 10  1  0
 10 11  1  0
 11 12  1  0
 12 13  2  0
 10 14  1  6
 14 15  1  0
 15 16  2  0
 16 17  1  0
 17 18  1  1
 18 19  1  0
 19 20  1  0
 18 21  1  0
  2 22  1  0
 22 23  1  0
  1 24  1  0
 24 25  1  0
  6  1  1  0
 17  9  1  0
 12  3  1  0
 20 16  1  0
M  END
>  <Name>  (1) 
Albomaculine

>  <Formula>  (1) 
C19H23NO5

>  <Mw>  (1) 
345.15762285

>  <CAS RN>  (1) 
668-63-3

>  <InChIKey>  (1) 
OXFLPPXWFHSXSK-BGEYKBDRNA-N

>  <InChICode>  (1) 
InChI=1S/C19H23NO5/c1-20-8-7-10-5-6-12-14(16(10)20)11-9-13(22-2)17(23-3)18(24-4)15(11)19(21)25-12/h5,9,12,14,16H,6-8H2,1-4H3/t12-,14-,16-/m1/s1

>  <SMILES>  (1) 
c1(c(c2c(cc1OC)[C@@H]1[C@H](OC2=O)CC=C2[C@H]1N(CC2)C)OC)OC

>  <C_ID>  (1) 
C00001559

>  <Contains_Nitrogen>  (1) 
True

>  <In_Species>  (1) 
Haemanthus albomaculatus

>  <NMRSHIFTDB2_ASSIGNMENT>  (1) 
1, 139.9 \
2, 149.3 \
3, 108.9 \
4, 137.8 \
5, 109.9 \
6, 151.8 \
8, 56.3 \
9, 43.8 \
10, 78.9 \
12, 169.8 \
14, 26.3 \
15, 114.9 \
16, 139.6 \
17, 66.4 \
19, 56.7 \
20, 27.9 \
21, 43.8 \
23, 61.2 \
25, 61.2 \

>  <NMR_score>  (1) 
0.947

$$$$
C00028714
     RDKit          2D

 25 28  0  0  0  0  0  0  0  0999 V2000
    0.9978   -0.0676    0.0000 C   0  0  0  0  0  0  0  0  0  0  0  0
    1.3704    0.8604    0.0000 C   0  0  0  0  0  0  0  0  0  0  0  0
    0.6028    1.5016    0.0000 O   0  0  0  0  0  0  0  0  0  0  0  0
   -0.2440    0.9698    0.0000 C   0  0  0  0  0  0  0  0  0  0  0  0
   -0.0000   -0.0000    0.0000 C   0  0  0  0  0  0  0  0  0  0  0  0
   -0.7180   -0.6962    0.0000 C   0  0  0  0  0  0  0  0  0  0  0  0
   -1.6798   -0.4226    0.0000 C   0  0  0  0  0  0  0  0  0  0  0  0
   -1.9238    0.5472    0.0000 C   0  0  0  0  0  0  0  0  0  0  0  0
   -1.2060    1.2434    0.0000 C   0  0  0  0  0  0  0  0  0  0  0  0
   -1.4500    2.2134    0.0000 O   0  0  0  0  0  0  0  0  0  0  0  0
   -0.7794   -1.6944    0.0000 C   0  0  0  0  0  0  0  0  0  0  0  0
    0.0112   -2.3068    0.0000 N   0  0  0  0  0  0  0  0  0  0  0  0
    0.9624   -1.9978    0.0000 C   0  0  0  0  0  0  0  0  0  0  0  0
    1.2418   -1.0374    0.0000 C   0  0  0  0  0  0  0  0  0  0  0  0
    2.3604    1.0018    0.0000 C   0  0  0  0  0  0  0  0  0  0  0  0
    2.9778    0.2150    0.0000 C   0  0  0  0  0  0  0  0  0  0  0  0
    2.6052   -0.7130    0.0000 C   0  0  0  0  0  0  0  0  0  0  0  0
    1.6152   -0.8544    0.0000 C   0  0  0  0  0  0  0  0  0  0  0  0
    3.9678    0.3562    0.0000 O   0  0  0  0  0  0  0  0  0  0  0  0
    4.5850   -0.4306    0.0000 C   0  0  0  0  0  0  0  0  0  0  0  0
    4.2122   -1.3584    0.0000 O   0  0  0  0  0  0  0  0  0  0  0  0
    5.5750   -0.2896    0.0000 C   0  0  0  0  0  0  0  0  0  0  0  0
    6.1922   -1.0764    0.0000 C   0  0  0  0  0  0  0  0  0  0  0  0
    5.8194   -2.0042    0.0000 O   0  0  0  0  0  0  0  0  0  0  0  0
    7.1822   -0.9354    0.0000 C   0  0  0  0  0  0  0  0  0  0  0  0
  1  2  1  0
  2  3  1  0
  3  4  1  0
  4  5  2  0
  5  6  1  0
  6  7  2  0
  7  8  1  0
  8  9  2  0
  9 10  1  0
  6 11  1  0
 11 12  1  0
 12 13  1  0
 13 14  1  0
  2 15  1  1
 15 16  1  0
 16 17  1  0
 17 18  2  0
 16 19  1  1
 19 20  1  0
 20 21  2  0
 20 22  1  0
 22 23  1  0
 23 24  1  0
 23 25  1  6
  5  1  1  0
  1 18  1  1
 14  1  1  0
  9  4  1  0
M  END
>  <Name>  (2) 
Norbutsanguinine

>  <Formula>  (2) 
C19H23NO5

>  <Mw>  (2) 
345.15762285

>  <CAS RN>  (2) 
164854-60-8

>  <InChIKey>  (2) 
TYKZEEVHXFAXJZ-PSPYIBNZNA-N

>  <InChICode>  (2) 
InChI=1S/C19H23NO5/c1-11(21)8-16(23)24-13-4-5-19-6-7-20-10-12-2-3-14(22)18(17(12)19)25-15(19)9-13/h2-5,11,13,15,20-22H,6-10H2,1H3/t11-,13-,15-,19-/m0/s1

>  <SMILES>  (2) 
[C@@]123[C@@H](Oc4c1c(ccc4O)CNCC3)C[C@H](C=C2)OC(=O)C[C@@H](O)C

>  <C_ID>  (2) 
C00028714

>  <Contains_Nitrogen>  (2) 
True

>  <In_Species>  (2) 
Lycoris sanguinea

>  <NMRSHIFTDB2_ASSIGNMENT>  (2) 
1, 48.6 \
2, 86.2 \
4, 147.2 \
5, 132.0 \
6, 133.3 \
7, 124.6 \
8, 115.4 \
9, 144.2 \
11, 53.8 \
13, 47.0 \
14, 40.8 \
15, 27.5 \
16, 63.4 \
17, 122.5 \
18, 131.6 \
20, 171.9 \
22, 43.9 \
23, 64.0 \
25, 22.6 \

>  <NMR_score>  (2) 
0.895

$$$$
